@<TRIPOS>MOLECULE
*****
 35 37 0 0 0
SMALL
GASTEIGER

@<TRIPOS>ATOM
      1 C          -9.1048   -0.0012    9.4613 C.ar    1  UNL1        0.1234
      2 C          -7.7360   -0.1147    9.2548 C.ar    1  UNL1       -0.0258
      3 C          -9.9622    0.0793    8.3674 C.ar    1  UNL1       -0.0258
      4 C          -9.4568    0.0465    7.0606 C.ar    1  UNL1       -0.0482
      5 H         -10.1917    0.1277    6.3016 H       1  UNL1        0.0625
      6 C          -8.0686   -0.0759    6.8135 C.ar    1  UNL1        0.0224
      7 C          -7.2259   -0.1522    7.9569 C.ar    1  UNL1       -0.0482
      8 H          -6.1512   -0.2406    7.8615 H       1  UNL1        0.0625
      9 C          -7.9575   -0.0874    4.0373 C.ar    1  UNL1        0.0225
     10 C          -9.3191   -0.0913    3.6601 C.ar    1  UNL1       -0.0474
     11 H         -10.1273   -0.1286    4.3462 H       1  UNL1        0.0626
     12 C          -9.7002   -0.0561    2.3096 C.ar    1  UNL1       -0.0187
     13 H         -10.7559   -0.0573    2.0631 H       1  UNL1        0.0654
     14 C          -8.7554   -0.0194    1.2760 C.ar    1  UNL1        0.1285
     15 C          -7.4013   -0.0184    1.6385 C.ar    1  UNL1       -0.0187
     16 H          -6.5961    0.0141    0.9496 H       1  UNL1        0.0654
     17 C          -7.0193   -0.0546    2.9781 C.ar    1  UNL1       -0.0474
     18 H          -5.9543   -0.0519    3.1724 H       1  UNL1        0.0626
     19 H         -11.0284    0.1714    8.5316 H       1  UNL1        0.0646
     20 F          -9.6000    0.0350   10.7227 F       1  UNL1       -0.2055
     21 H          -7.0625   -0.1734   10.1007 H       1  UNL1        0.0646
     22 C          -7.3891   -0.1192    5.4521 C.2     1  UNL1        0.1931
     23 O          -6.1671   -0.1839    5.5038 O.2     1  UNL1       -0.2867
     24 O          -9.2470    0.0181   -0.0006 O.3     1  UNL1       -0.4560
     25 H          -6.5931   -0.1155   -1.0162 H       1  UNL1        0.0655
     26 C          -7.4150   -0.0246   -1.6816 C.ar    1  UNL1       -0.0166
     27 C          -8.7721    0.0447   -1.2840 C.ar    1  UNL1        0.1286
     28 C          -9.7446    0.1476   -2.2946 C.ar    1  UNL1       -0.0166
     29 H         -10.7932    0.1980   -2.0287 H       1  UNL1        0.0655
     30 C          -9.3884    0.1875   -3.6463 C.ar    1  UNL1       -0.0230
     31 H         -10.1545    0.2672   -4.4068 H       1  UNL1        0.0647
     32 C          -8.0463    0.1256   -4.0164 C.ar    1  UNL1        0.1236
     33 F          -7.6965    0.1662   -5.3258 F       1  UNL1       -0.2055
     34 C          -7.0636    0.0189   -3.0349 C.ar    1  UNL1       -0.0230
     35 H          -6.0203   -0.0320   -3.3217 H       1  UNL1        0.0647
@<TRIPOS>BOND
     1     2     7   ar
     2     3     4   ar
     3     4     5    1
     4     4     6   ar
     5     6     7   ar
     6     7     8    1
     7     9    10   ar
     8     9    17   ar
     9    10    11    1
    10    10    12   ar
    11    12    13    1
    12    12    14   ar
    13    14    15   ar
    14    15    16    1
    15    15    17   ar
    16    17    18    1
    17     3     1   ar
    18     1     2   ar
    19     3    19    1
    20     1    20    1
    21     2    21    1
    22     6    22    1
    23    22    23    2
    24     9    22    1
    25    14    24    1
    26    25    26    1
    27    26    27   ar
    28    26    34   ar
    29    27    28   ar
    30    28    29    1
    31    28    30   ar
    32    30    31    1
    33    30    32   ar
    34    32    33    1
    35    32    34   ar
    36    34    35    1
    37    27    24    1
